[General]
network = cosc441assignment1.SimulationNetwork
sim-time-limit = 100s

SimulationNetwork.transmitter.numberOverheadBits = 100
SimulationNetwork.pktChannel.pathLossExponent = 4
SimulationNetwork.pktChannel.txPowerDBm = 0
SimulationNetwork.pktChannel.noisePowerDBm = -120.0
SimulationNetwork.pktChannel.bitRate = 250000