[General]
network = cosc441assignment1.SimulationNetwork
sim-time-limit = 100s

SimulationNetwork.transmitter.numberOverheadBits = 100
SimulationNetwork.pktChannel.pathLossExponent = 4
SimulationNetwork.pktChannel.txPowerDBm = 0
SimulationNetwork.pktChannel.noisePowerDBm = -120.0
SimulationNetwork.pktChannel.bitRate = 250000

[Config Experiment1]
repeat = 100
SimulationNetwork.transmitter.numberUserBits = ${400, 900}
SimulationNetwork.pktChannel.nodeDistance = ${10, 11, 12..50 step 1}
SimulationNetwork.pktChannel.transProbGoodGood = 0.9999
SimulationNetwork.pktChannel.transProbBadBad = 0.9999
SimulationNetwork.pktChannel.channelGainGoodDB = 0
SimulationNetwork.pktChannel.channelGainBadDB = 0