[General]
network = cosc441assignment1.SimulationNetwork
sim-time-limit = 100s
seed-set = ${repetition}

SimulationNetwork.transmitter.numberOverheadBits = 100
SimulationNetwork.pktChannel.pathLossExponent = 4
SimulationNetwork.pktChannel.txPowerDBm = 0
SimulationNetwork.pktChannel.noisePowerDBm = -120.0
SimulationNetwork.pktChannel.bitRate = 250000

[Config Experiment1]
repeat = 100
SimulationNetwork.transmitter.numberUserBits = ${400, 900}
SimulationNetwork.pktChannel.nodeDistance = ${10, 11, 12..50 step 1}
SimulationNetwork.pktChannel.transProbGoodGood = 0.9999
SimulationNetwork.pktChannel.transProbBadBad = 0.9999
SimulationNetwork.pktChannel.channelGainGoodDB = 0
SimulationNetwork.pktChannel.channelGainBadDB = 0

[Config Experiment2]
repeat = 100
SimulationNetwork.transmitter.numberUserBits = ${100, 200, 300..900 step 100}
SimulationNetwork.pktChannel.nodeDistance = 50
SimulationNetwork.pktChannel.transProbGoodGood = 0.9999
SimulationNetwork.pktChannel.transProbBadBad = 0.9999
SimulationNetwork.pktChannel.channelGainGoodDB = 0
SimulationNetwork.pktChannel.channelGainBadDB = 0

[Config Experiment3]
repeat = 100
SimulationNetwork.transmitter.numberUserBits = ${100, 200, 300..900 step 100}
SimulationNetwork.pktChannel.nodeDistance = 35
SimulationNetwork.pktChannel.transProbGoodGood = 0.998
SimulationNetwork.pktChannel.transProbBadBad = 0.8802504776808445
SimulationNetwork.pktChannel.channelGainGoodDB = 3
SimulationNetwork.pktChannel.channelGainBadDB = -5